99A
  CCTOOLS-0912141051

 71 75  0  0  1  0  0  0  0  0999 V2000
    4.8080    2.9840    1.7920 C   0  0  0  0  0
    5.3950    1.8950    0.9310 C   0  0  0  0  0
    6.7420    1.8980    0.6380 C   0  0  0  0  0
    7.2850    0.8890   -0.1580 C   0  0  0  0  0
    8.7320    0.8920   -0.4720 C   0  0  0  0  0
    9.2000    0.0290   -1.1880 O   0  0  0  0  0
    9.5300    1.8520    0.0360 N   0  0  0  0  0
    6.4640   -0.1220   -0.6590 C   0  0  0  0  0
    7.0510   -1.2110   -1.5200 C   0  0  0  0  0
    5.1180   -0.1250   -0.3670 C   0  0  0  0  0
    4.5760    0.8800    0.4350 C   0  0  0  0  0
    3.1300    0.8740    0.7540 C   0  0  0  0  0
    2.6630    1.7330    1.4760 O   0  0  0  0  0
    2.3320   -0.0860    0.2450 N   0  0  0  0  0
    0.9020   -0.0930    0.5620 C   0  0  0  0  0
    0.5420   -1.4040    1.2660 C   0  0  0  0  0
    0.0930    0.0380   -0.7320 C   0  0  0  0  0
    0.3110   -1.2220   -1.5850 C   0  0  0  0  0
    1.8310   -1.5030   -1.6330 C   0  0  0  0  0
    2.1070   -2.3920   -0.4020 C   0  0  0  0  0
    0.7290   -2.5670    0.2780 C   0  0  0  0  0
   -0.2500   -2.3710   -0.8250 N   0  0  0  0  0
   -1.5060   -2.0690   -0.3250 C   0  0  0  0  0
   -1.9520   -2.6970    0.8370 C   0  0  0  0  0
   -3.1930   -2.3960    1.3280 C   0  0  0  0  0
   -2.2650   -1.1840   -0.9560 N   0  0  0  0  0
   -3.4650   -0.8670   -0.5180 C   0  0  0  0  0
   -3.9780   -1.4600    0.6370 C   0  0  0  0  0
   -5.3230   -1.1040    1.1270 C   0  0  0  0  0
   -5.7590   -1.6220    2.1370 O   0  0  0  0  0
   -6.0680   -0.2030    0.4560 N   0  0  0  0  0
   -7.4040    0.1500    0.9430 C   0  0  0  0  0
   -8.0210    1.1690    0.0200 C   0  0  0  0  0
   -8.7780    0.7550   -1.0600 C   0  0  0  0  0
   -9.3440    1.6900   -1.9070 C   0  0  0  0  0
   -9.1540    3.0390   -1.6720 C   0  0  0  0  0
   -8.3990    3.4530   -0.5910 C   0  0  0  0  0
   -7.8360    2.5190    0.2570 C   0  0  0  0  0
    4.3600    3.7480    1.1560 H   0  0  0  0  0
    4.0450    2.5600    2.4440 H   0  0  0  0  0
    5.5960    3.4320    2.3970 H   0  0  0  0  0
    7.3770    2.6810    1.0260 H   0  0  0  0  0
    9.1560    2.5410    0.6080 H   0  0  0  0  0
   10.4780    1.8540   -0.1690 H   0  0  0  0  0
    7.5030   -1.9730   -0.8850 H   0  0  0  0  0
    6.2630   -1.6620   -2.1230 H   0  0  0  0  0
    7.8120   -0.7870   -2.1750 H   0  0  0  0  0
    4.4830   -0.9090   -0.7540 H   0  0  0  0  0
    2.7050   -0.7720   -0.3300 H   0  0  0  0  0
    1.1950   -1.5480    2.1260 H   0  0  0  0  0
   -0.4970   -1.3690    1.5950 H   0  0  0  0  0
   -0.9650    0.1390   -0.4930 H   0  0  0  0  0
    0.4290    0.9160   -1.2850 H   0  0  0  0  0
    0.6290   -3.5380    0.7630 H   0  0  0  0  0
   -0.1220   -1.1240   -2.5800 H   0  0  0  0  0
    2.0890   -2.0340   -2.5490 H   0  0  0  0  0
    2.3910   -0.5720   -1.5610 H   0  0  0  0  0
    2.5010   -3.3590   -0.7130 H   0  0  0  0  0
    2.8030   -1.8970    0.2740 H   0  0  0  0  0
   -1.3230   -3.4130    1.3450 H   0  0  0  0  0
   -3.5610   -2.8690    2.2270 H   0  0  0  0  0
   -4.0580   -0.1420   -1.0560 H   0  0  0  0  0
   -5.7200    0.2100   -0.3490 H   0  0  0  0  0
   -8.0290   -0.7420    0.9690 H   0  0  0  0  0
   -7.3260    0.5690    1.9460 H   0  0  0  0  0
   -8.9260   -0.2990   -1.2430 H   0  0  0  0  0
   -7.2490    2.8420    1.1040 H   0  0  0  0  0
   -9.9340    1.3660   -2.7510 H   0  0  0  0  0
   -9.5960    3.7690   -2.3340 H   0  0  0  0  0
   -8.2500    4.5070   -0.4090 H   0  0  0  0  0
    0.6720    0.7470    1.2190 H   0  0  0  0  0
  1  2  1  0  0  0
  1 39  1  0  0  0
  1 40  1  0  0  0
  1 41  1  0  0  0
  2  3  1  0  0  0
  2 11  2  0  0  0
  3  4  2  0  0  0
  3 42  1  0  0  0
  4  5  1  0  0  0
  4  8  1  0  0  0
  5  6  2  0  0  0
  5  7  1  0  0  0
  7 43  1  0  0  0
  7 44  1  0  0  0
  8  9  1  0  0  0
  8 10  2  0  0  0
  9 45  1  0  0  0
  9 46  1  0  0  0
  9 47  1  0  0  0
 10 11  1  0  0  0
 10 48  1  0  0  0
 11 12  1  0  0  0
 12 13  2  0  0  0
 12 14  1  0  0  0
 14 15  1  0  0  0
 14 49  1  0  0  0
 15 16  1  0  0  0
 15 17  1  0  0  0
 15 71  1  0  0  0
 16 21  1  0  0  0
 16 50  1  0  0  0
 16 51  1  0  0  0
 17 18  1  0  0  0
 17 52  1  0  0  0
 17 53  1  0  0  0
 18 19  1  0  0  0
 18 22  1  0  0  0
 18 55  1  0  0  0
 19 20  1  0  0  0
 19 56  1  0  0  0
 19 57  1  0  0  0
 20 21  1  0  0  0
 20 58  1  0  0  0
 20 59  1  0  0  0
 21 22  1  0  0  0
 21 54  1  0  0  0
 22 23  1  0  0  0
 23 24  1  0  0  0
 23 26  2  0  0  0
 24 25  2  0  0  0
 24 60  1  0  0  0
 25 28  1  0  0  0
 25 61  1  0  0  0
 26 27  1  0  0  0
 27 28  2  0  0  0
 27 62  1  0  0  0
 28 29  1  0  0  0
 29 30  2  0  0  0
 29 31  1  0  0  0
 31 32  1  0  0  0
 31 63  1  0  0  0
 32 33  1  0  0  0
 32 64  1  0  0  0
 32 65  1  0  0  0
 33 34  1  0  0  0
 33 38  2  0  0  0
 34 35  2  0  0  0
 34 66  1  0  0  0
 35 36  1  0  0  0
 35 68  1  0  0  0
 36 37  2  0  0  0
 36 69  1  0  0  0
 37 38  1  0  0  0
 37 70  1  0  0  0
 38 67  1  0  0  0
M  END
$$$$
