99B
  CCTOOLS-0824121211

 74 78  0  0  1  0  0  0  0  0999 V2000
    4.3260    2.3050   -0.5840 C   0  0  0  0  0
    5.2010    1.1600   -0.3220 N   0  0  0  0  0
    0.7880   -2.8350    0.1340 O   0  0  0  0  0
    5.0180    3.5910   -0.1260 C   0  0  0  0  0
    0.4570   -0.6390    0.1210 N   0  0  0  0  0
   -7.8890   -0.4750    1.3160 O   0  0  0  0  0
    5.1990    3.5590    1.3930 C   0  0  0  0  0
   -2.1570    1.8490    0.1760 N   0  0  0  0  0
    7.4440    0.0580   -0.1200 O   0  0  0  0  0
    4.0320    2.3900   -2.0830 C   0  0  0  0  0
   -4.0430    0.9890   -0.9120 N   0  0  0  0  0
    4.6550   -0.1070   -0.1520 C   0  0  0  0  0
    7.7630   -2.1400   -0.0800 N   0  0  0  0  0
    3.2770   -0.2710   -0.1080 C   0  0  0  0  0
    2.7350   -1.5420    0.0620 C   0  0  0  0  0
    1.2650   -1.7180    0.1080 C   0  0  0  0  0
   -0.9970   -0.8130    0.1670 C   0  0  0  0  0
   -1.6250   -0.1720   -1.0740 C   0  0  0  0  0
   -1.4120    1.3490   -1.0100 C   0  0  0  0  0
   -1.3420    1.3710    1.3240 C   0  0  0  0  0
   -1.5500   -0.1480    1.4300 C   0  0  0  0  0
    0.1190    1.6180    0.8810 C   0  0  0  0  0
    0.0730    1.6030   -0.6610 C   0  0  0  0  0
   -3.4340    1.3180    0.2190 C   0  0  0  0  0
   -5.2570    0.4800   -0.9200 C   0  0  0  0  0
   -5.9460    0.2700    0.2790 C   0  0  0  0  0
   -7.3000   -0.2970    0.2710 C   0  0  0  0  0
   -7.9580   -0.6580   -1.0360 C   0  0  0  0  0
   -9.4830   -0.5650   -1.1080 C   0  0  0  0  0
   -8.8010   -1.9340   -1.0730 C   0  0  0  0  0
   -4.0600    1.1370    1.4520 C   0  0  0  0  0
   -5.3220    0.6110    1.4930 C   0  0  0  0  0
    5.4950   -1.2240   -0.0290 C   0  0  0  0  0
    6.9600   -1.0570   -0.0790 C   0  0  0  0  0
    4.9410   -2.4950    0.1420 C   0  0  0  0  0
    3.5740   -2.6510    0.1900 C   0  0  0  0  0
    2.9810   -4.0250    0.3740 C   0  0  0  0  0
    3.3910    2.1810   -0.0370 H   0  0  0  0  0
    6.1610    1.2850   -0.2680 H   0  0  0  0  0
    5.9930    3.6690   -0.6070 H   0  0  0  0  0
    4.4060    4.4500   -0.4010 H   0  0  0  0  0
    0.8390    0.2520    0.1000 H   0  0  0  0  0
    4.2240    3.4800    1.8740 H   0  0  0  0  0
    5.8110    2.6990    1.6680 H   0  0  0  0  0
    5.6920    4.4750    1.7190 H   0  0  0  0  0
    4.9660    2.5140   -2.6300 H   0  0  0  0  0
    3.5390    1.4740   -2.4090 H   0  0  0  0  0
    3.3810    3.2420   -2.2780 H   0  0  0  0  0
    8.7260   -2.0300   -0.1130 H   0  0  0  0  0
    7.3770   -3.0290   -0.0480 H   0  0  0  0  0
    2.6270    0.5860   -0.2060 H   0  0  0  0  0
   -1.2340   -1.8770    0.1850 H   0  0  0  0  0
   -1.1510   -0.5700   -1.9710 H   0  0  0  0  0
   -2.6930   -0.3900   -1.0960 H   0  0  0  0  0
   -1.7190    1.8450   -1.9300 H   0  0  0  0  0
   -1.5930    1.8860    2.2510 H   0  0  0  0  0
   -2.6140   -0.3650    1.5200 H   0  0  0  0  0
   -1.0220   -0.5290    2.3040 H   0  0  0  0  0
    0.4660    2.5870    1.2410 H   0  0  0  0  0
    0.7670    0.8220    1.2490 H   0  0  0  0  0
    0.6970    0.8000   -1.0520 H   0  0  0  0  0
    0.3960    2.5650   -1.0600 H   0  0  0  0  0
   -5.7240    0.2230   -1.8590 H   0  0  0  0  0
   -7.3940   -0.4010   -1.9330 H   0  0  0  0  0
  -10.0110   -0.2420   -0.2110 H   0  0  0  0  0
   -9.9230   -0.2460   -2.0530 H   0  0  0  0  0
   -8.7930   -2.5160   -1.9950 H   0  0  0  0  0
   -8.8810   -2.5120   -0.1520 H   0  0  0  0  0
   -3.5540    1.4090    2.3660 H   0  0  0  0  0
   -5.8280    0.4610    2.4350 H   0  0  0  0  0
    5.5860   -3.3560    0.2370 H   0  0  0  0  0
    2.7040   -4.4340   -0.5970 H   0  0  0  0  0
    3.7150   -4.6770    0.8480 H   0  0  0  0  0
    2.0950   -3.9560    1.0050 H   0  0  0  0  0
  1  2  1  0  0  0
  1  4  1  0  0  0
  1 10  1  0  0  0
  1 38  1  0  0  0
  2 12  1  0  0  0
  2 39  1  0  0  0
  3 16  2  0  0  0
  4  7  1  0  0  0
  4 40  1  0  0  0
  4 41  1  0  0  0
  5 16  1  0  0  0
  5 17  1  0  0  0
  5 42  1  0  0  0
  6 27  2  0  0  0
  7 43  1  0  0  0
  7 44  1  0  0  0
  7 45  1  0  0  0
  8 19  1  0  0  0
  8 20  1  0  0  0
  8 24  1  0  0  0
  9 34  2  0  0  0
 10 46  1  0  0  0
 10 47  1  0  0  0
 10 48  1  0  0  0
 11 24  2  0  0  0
 11 25  1  0  0  0
 12 14  2  0  0  0
 12 33  1  0  0  0
 13 34  1  0  0  0
 13 49  1  0  0  0
 13 50  1  0  0  0
 14 15  1  0  0  0
 14 51  1  0  0  0
 15 16  1  0  0  0
 15 36  2  0  0  0
 17 18  1  0  0  0
 17 21  1  0  0  0
 17 52  1  0  0  0
 18 19  1  0  0  0
 18 53  1  0  0  0
 18 54  1  0  0  0
 19 23  1  0  0  0
 19 55  1  0  0  0
 20 21  1  0  0  0
 20 22  1  0  0  0
 20 56  1  0  0  0
 21 57  1  0  0  0
 21 58  1  0  0  0
 22 23  1  0  0  0
 22 59  1  0  0  0
 22 60  1  0  0  0
 23 61  1  0  0  0
 23 62  1  0  0  0
 24 31  1  0  0  0
 25 26  2  0  0  0
 25 63  1  0  0  0
 26 27  1  0  0  0
 26 32  1  0  0  0
 27 28  1  0  0  0
 28 29  1  0  0  0
 28 30  1  0  0  0
 28 64  1  0  0  0
 29 30  1  0  0  0
 29 65  1  0  0  0
 29 66  1  0  0  0
 30 67  1  0  0  0
 30 68  1  0  0  0
 31 32  2  0  0  0
 31 69  1  0  0  0
 32 70  1  0  0  0
 33 34  1  0  0  0
 33 35  2  0  0  0
 35 36  1  0  0  0
 35 71  1  0  0  0
 36 37  1  0  0  0
 37 72  1  0  0  0
 37 73  1  0  0  0
 37 74  1  0  0  0
M  END
$$$$
