B2L
  CCTOOLS-1118111045

 36 39  0  0  0  0  0  0  0  0999 V2000
   -3.9650    1.5740   -0.5160 C   0  0  0  0  0
   -4.6900    0.7280    0.3810 O   0  0  0  0  0
   -4.5170   -0.6720    0.1430 C   0  0  0  0  0
   -3.0550   -1.0180    0.2510 C   0  0  0  0  0
   -2.6520   -2.2630    0.6180 C   0  0  0  0  0
   -1.2960   -2.5730    0.7140 C   0  0  0  0  0
   -0.3380   -1.6420    0.4460 C   0  0  0  0  0
   -0.7180   -0.3470    0.0660 C   0  0  0  0  0
   -2.0920   -0.0330   -0.0330 C   0  0  0  0  0
   -2.4930    1.2610   -0.4140 C   0  0  0  0  0
   -1.5560    2.2080   -0.6830 C   0  0  0  0  0
   -0.1980    1.9190   -0.5910 C   0  0  0  0  0
    0.2380    0.6580   -0.2210 C   0  0  0  0  0
    1.6860    0.3630   -0.1270 C   0  0  0  0  0
    2.1910   -0.7300   -0.6950 N   0  0  0  0  0
    2.5450    1.2310    0.5550 C   0  0  0  0  0
    3.8890    0.9140    0.6160 C   0  0  0  0  0
    4.8530    1.8180    1.3400 C   0  0  0  0  0
    4.3210   -0.1930    0.0320 N   0  0  0  0  0
    3.4850   -0.9950   -0.6120 C   0  0  0  0  0
    3.9790   -2.1400   -1.2140 N   0  0  0  0  0
   -4.3040    1.3980   -1.5360 H   0  0  0  0  0
   -4.1340    2.6170   -0.2500 H   0  0  0  0  0
   -5.0820   -1.2400    0.8820 H   0  0  0  0  0
   -4.8760   -0.9180   -0.8570 H   0  0  0  0  0
   -3.3900   -3.0200    0.8380 H   0  0  0  0  0
   -0.9990   -3.5700    1.0070 H   0  0  0  0  0
    0.7080   -1.9000    0.5260 H   0  0  0  0  0
   -1.8700    3.2000   -0.9740 H   0  0  0  0  0
    0.5270    2.6890   -0.8120 H   0  0  0  0  0
    2.1670    2.1280    1.0230 H   0  0  0  0  0
    4.9230    1.5140    2.3840 H   0  0  0  0  0
    5.8360    1.7480    0.8750 H   0  0  0  0  0
    4.4970    2.8470    1.2840 H   0  0  0  0  0
    3.3790   -2.7360   -1.6890 H   0  0  0  0  0
    4.9250   -2.3460   -1.1610 H   0  0  0  0  0
  1  2  1  0  0  0
  1 10  1  0  0  0
  1 22  1  0  0  0
  1 23  1  0  0  0
  2  3  1  0  0  0
  3  4  1  0  0  0
  3 24  1  0  0  0
  3 25  1  0  0  0
  4  5  2  0  0  0
  4  9  1  0  0  0
  5  6  1  0  0  0
  5 26  1  0  0  0
  6  7  2  0  0  0
  6 27  1  0  0  0
  7  8  1  0  0  0
  7 28  1  0  0  0
  8  9  2  0  0  0
  8 13  1  0  0  0
  9 10  1  0  0  0
 10 11  2  0  0  0
 11 12  1  0  0  0
 11 29  1  0  0  0
 12 13  2  0  0  0
 12 30  1  0  0  0
 13 14  1  0  0  0
 14 15  2  0  0  0
 14 16  1  0  0  0
 15 20  1  0  0  0
 16 17  2  0  0  0
 16 31  1  0  0  0
 17 18  1  0  0  0
 17 19  1  0  0  0
 18 32  1  0  0  0
 18 33  1  0  0  0
 18 34  1  0  0  0
 19 20  2  0  0  0
 20 21  1  0  0  0
 21 35  1  0  0  0
 21 36  1  0  0  0
M  END
$$$$
