B2K
  CCTOOLS-1118111045

 31 32  0  0  0  0  0  0  0  0999 V2000
   -2.1280    0.2010   -1.1940 C   0  0  0  0  0
   -3.2540    0.9790   -0.9960 C   0  0  0  0  0
   -3.8200    1.0690    0.2620 C   0  0  0  0  0
   -5.0470    1.9170    0.4770 C   0  0  0  0  0
   -3.2610    0.3810    1.3220 C   0  0  0  0  0
   -2.1350   -0.3970    1.1250 C   0  0  0  0  0
   -1.5680   -0.4860   -0.1330 C   0  0  0  0  0
   -0.1340   -1.4770   -0.3850 S   0  0  0  0  0
   -0.1260   -2.4440    0.6570 O   0  0  0  0  0
   -0.1200   -1.8210   -1.7640 O   0  0  0  0  0
    1.2680   -0.4440   -0.1150 C   0  0  0  0  0
    1.7980   -0.3360    1.0920 N   0  0  0  0  0
    1.8320    0.2610   -1.1670 C   0  0  0  0  0
    2.9340    1.0620   -0.9120 C   0  0  0  0  0
    3.5800    1.8470   -2.0250 C   0  0  0  0  0
    3.4120    1.1290    0.3190 N   0  0  0  0  0
    2.8520    0.4390    1.3020 C   0  0  0  0  0
    3.3810    0.5290    2.5780 N   0  0  0  0  0
   -1.6890    0.1280   -2.1770 H   0  0  0  0  0
   -3.6910    1.5160   -1.8250 H   0  0  0  0  0
   -5.9400    1.3110    0.3190 H   0  0  0  0  0
   -5.0470    2.3040    1.4960 H   0  0  0  0  0
   -5.0430    2.7480   -0.2270 H   0  0  0  0  0
   -3.7030    0.4510    2.3050 H   0  0  0  0  0
   -1.6980   -0.9340    1.9530 H   0  0  0  0  0
    1.4230    0.1870   -2.1640 H   0  0  0  0  0
    3.1140    2.8290   -2.0950 H   0  0  0  0  0
    4.6440    1.9640   -1.8170 H   0  0  0  0  0
    3.4510    1.3150   -2.9670 H   0  0  0  0  0
    2.9800    0.0280    3.3050 H   0  0  0  0  0
    4.1530    1.0920    2.7440 H   0  0  0  0  0
  1  2  2  0  0  0
  1  7  1  0  0  0
  1 19  1  0  0  0
  2  3  1  0  0  0
  2 20  1  0  0  0
  3  4  1  0  0  0
  3  5  2  0  0  0
  4 21  1  0  0  0
  4 22  1  0  0  0
  4 23  1  0  0  0
  5  6  1  0  0  0
  5 24  1  0  0  0
  6  7  2  0  0  0
  6 25  1  0  0  0
  7  8  1  0  0  0
  8  9  2  0  0  0
  8 10  2  0  0  0
  8 11  1  0  0  0
 11 12  2  0  0  0
 11 13  1  0  0  0
 12 17  1  0  0  0
 13 14  2  0  0  0
 13 26  1  0  0  0
 14 15  1  0  0  0
 14 16  1  0  0  0
 15 27  1  0  0  0
 15 28  1  0  0  0
 15 29  1  0  0  0
 16 17  2  0  0  0
 17 18  1  0  0  0
 18 30  1  0  0  0
 18 31  1  0  0  0
M  END
$$$$
